%chk=poly.chk
# opt pm3 geom=connectivity

Title Card Required

0 1
 Si               -16.87088456    0.78687598   -0.55853432
 C                -21.37088456   -0.53512402   -0.08853432
 C                -22.03988456   -0.67912402   -1.29653432
 C                -21.69788456    0.50787598    0.76846568
 N                -23.01088456    0.17987598   -1.64753432
 C                -22.73488456    1.36587598    0.41046568
 C                -23.36388456    1.15887598   -0.81653432
 N                -22.04388456   -1.84512402   -2.03753432
 C                -20.97288456   -2.39612402   -2.67653432
 C                -19.66488456   -1.63812402   -2.61453432
 C                -19.07088456   -1.46412402   -4.04053432
 C                -17.64788456   -0.94012402   -3.83953432
 N                -17.44888456    0.39087598   -3.68553432
 O                -21.05888456   -3.43112402   -3.30353432
 O                -16.73488456   -1.70612402   -3.60553432
 C                -18.49188456    1.42587598   -3.69153432
 C                -17.08288456   -1.08212402   -0.31953432
 C                -16.20788456    1.34787598    1.12746568
 O                -15.81888456    1.12087598   -1.76853432
 Si               -14.44088456    1.86487598   -2.20453432
 O                -13.81788456    2.32287598   -0.76853432
 Si               -13.64688456    3.52287598    0.33446568
 C                -12.34588456    4.75187598   -0.29253432
 C                -15.26688456    4.49487598    0.58846568
 C                -14.62888456    3.42787598   -3.28053432
 C                -13.48888456    0.65087598   -3.29653432
 C                 20.67711544    4.75887598   -3.60453432
 C                 19.59811544    3.88687598   -3.53253432
 C                 21.73211544    4.48687598   -4.46153432
 N                 19.55611544    2.73687598   -4.25153432
 C                 21.67811544    3.34087598   -5.24553432
 C                 20.57311544    2.49287598   -5.08953432
 N                 18.48611544    4.08887598   -2.75953432
 C                 18.19511544    4.86487598   -1.66553432
 C                 16.88811544    4.47987598   -1.02853432
 C                 16.66311544    2.98287598   -0.61553432
 C                 16.92411544    2.05987598   -1.82153432
 N                 18.13611544    1.43487598   -1.86053432
 O                 18.86611544    5.81587598   -1.29953432
 O                 16.36911544    2.29687598   -2.88153432
 C                 19.03211544    1.11387598   -0.76953432
 C                 19.48711544   -0.35612402   -0.77553432
 C                -18.45988456    2.35287598   -2.46353432
 C                -18.46988456    1.69587598   -1.05053432
 C                 18.43611544   -1.47512402   -1.01753432
 O                -13.02388456    2.83887598    1.67646568
 Si               -11.78488456    2.18887598    2.52946568
 C                -12.61188456    1.85587598    4.21346568
 C                -10.65088456    3.68487598    2.83846568
 O                -11.44788456    0.71887598    1.90646568
 Si               -11.89688456   -0.84512402    2.18146568
 O                -11.18688456   -1.67212402    0.95046568
 Si               -10.16688456   -1.02012402   -0.16553432
 C                -11.19988456    0.38387598   -0.92753432
 C                 -9.99188456   -2.23612402   -1.64653432
 C                -13.78588456   -1.06712402    2.10746568
 C                -11.00188456   -1.43312402    3.74646568
 O                 -8.90288456   -0.37712402    0.65546568
 Si                -7.56988456    0.43987598    0.19546568
 C                 -6.86388456    1.55787598    1.55846568
 C                 -8.20088456    1.41787598   -1.28053432
 O                 -6.47688456   -0.74312402   -0.09553432
 Si                -6.44588456   -2.39812402   -0.13053432
 O                 -6.35788456   -2.83312402   -1.72653432
 Si                -5.26688456   -1.98012402   -2.62853432
 C                 -6.30888456   -0.95812402   -3.81953432
 C                 -4.20688456   -3.33412402   -3.39253432
 C                 -4.99988456   -3.20512402    0.78446568
 C                 -7.98688456   -3.17112402    0.70046568
 O                 -4.51888456   -0.88912402   -1.64053432
 Si                -3.55788456    0.44487598   -1.81053432
 C                 -2.35688456    0.24487598   -3.26953432
 C                 -4.61488456    1.95587598   -2.13953432
 O                 -2.59388456    0.67587598   -0.50053432
 Si                -2.76288456    0.75787598    1.13846568
 O                 -1.61488456   -0.08312402    1.90346568
 Si                -1.07988456   -0.67812402    3.33646568
 C                  0.11411544   -2.07012402    2.94246568
 C                 -2.58988456   -1.28412402    4.36346568
 C                 -4.19588456   -0.19212402    1.82646568
 C                 -2.91688456    2.57587598    1.70546568
 O                 -0.35388456    0.49287598    4.24846568
 Si                 0.76611544    1.67487598    4.08746568
 C                  2.35511544    0.85987598    4.50946568
 C                  0.26811544    3.02187598    5.36346568
 O                  0.50811544    2.02987598    2.48446568
 Si                 1.50211544    2.81287598    1.43346568
 O                  2.46011544    1.83487598    0.47246568
 Si                 3.55711544    2.05987598   -0.77353432
 C                  2.43411544    2.38487598   -2.29953432
 C                  4.50011544    3.68487598   -0.59453432
 C                  0.46911544    3.87287598    0.30746568
 C                  2.80211544    3.73487598    2.46446568
 O                  4.50711544    0.72587598   -1.02853432
 Si                 3.78811544   -0.63112402   -1.66053432
 C                  1.90811544   -0.84812402   -1.66853432
 C                  4.52711544   -0.67912402   -3.39253432
 O                  4.57311544   -1.94712402   -0.96153432
 Si                 3.80011544   -2.76812402    0.25446568
 O                  4.84811544   -3.69212402    1.13346568
 Si                 5.19411544   -3.93612402    2.74146568
 C                  3.71411544   -4.33312402    3.87546568
 C                  6.42211544   -5.31512402    2.73446568
 C                  3.36711544   -1.44312402    1.54046568
 C                  2.41311544   -3.87812402   -0.30053432
 O                  6.14911544   -2.70012402    3.24346568
 Si                 6.23211544   -1.62712402    4.47046568
 C                  6.41411544   -2.46112402    6.16946568
 C                  4.94911544   -0.32712402    4.67046568
 O                  7.58011544   -0.76112402    4.20546568
 Si                 8.32411544    0.54487598    3.57446568
 O                  9.26811544   -0.00712402    2.36646568
 Si                10.16011544    0.09987598    1.00046568
 C                 10.38911544    1.96687598    0.68146568
 C                  9.09411544   -0.56112402   -0.41953432
 C                  7.15311544    1.76887598    2.76846568
 C                  9.26411544    1.35587598    4.98346568
 O                 11.56111544   -0.68912402    1.29246568
 Si                12.02911544   -1.97912402    2.23946568
 C                 10.64411544   -2.37312402    3.46046568
 C                 13.57511544   -1.33112402    3.11146568
 O                 12.38911544   -3.21712402    1.19746568
 Si                11.46611544   -3.76212402   -0.07153432
 O                 11.82711544   -2.74212402   -1.30353432
 Si                12.62511544   -2.50412402   -2.69753432
 C                 11.48111544   -1.88712402   -4.11353432
 C                 13.23411544   -4.16412402   -3.38453432
 C                  9.63611544   -3.90212402    0.37346568
 C                 11.97911544   -5.52212402   -0.57653432
 O                 14.04111544   -1.80312402   -2.42653432
 Si                15.00011544   -0.52312402   -2.71753432
 O                 15.71711544   -0.29612402   -1.24853432
 Si                16.66711544   -1.24212402   -0.26853432
 C                 15.65811544   -2.85412402   -0.03753432
 C                 16.67011544   -0.45512402    1.46646568
 C                 13.70911544    0.76787598   -3.23253432
 C                 16.23311544   -0.93312402   -4.07553432
 H                -20.65788456   -1.30012402    0.23546568
 H                -21.14988456    0.64287598    1.71346568
 H                -23.07788456    2.17087598    1.07346568
 H                -24.18288456    1.79487598   -1.17353432
 H                -22.94288456   -2.20312402   -2.31753432
 H                -19.00688456   -2.31012402   -2.03853432
 H                -19.67988456   -0.66212402   -2.11953432
 H                -19.74888456   -0.92112402   -4.71653432
 H                -18.88288456   -2.45312402   -4.48553432
 H                -16.56588456    0.59687598   -3.21353432
 H                -19.47888456    0.95087598   -3.73953432
 H                -18.38388456    2.03587598   -4.60353432
 H                -16.55788456   -1.67212402   -1.08453432
 H                -18.13088456   -1.40612402   -0.28153432
 H                -16.62588456   -1.34812402    0.64746568
 H                -15.11488456    1.26987598    1.19846568
 H                -16.63488456    0.67787598    1.89246568
 H                -16.51588456    2.36187598    1.40546568
 H                -12.53688456    5.03587598   -1.33853432
 H                -11.32188456    4.35787598   -0.24253432
 H                -12.36188456    5.67187598    0.31146568
 H                -15.75588456    4.30087598    1.55446568
 H                -15.99988456    4.26187598   -0.20153432
 H                -15.06988456    5.57787598    0.54146568
 H                -13.63188456    3.78887598   -3.58053432
 H                -15.18588456    4.26187598   -2.82353432
 H                -15.19188456    3.14087598   -4.18653432
 H                -14.14488456    0.34387598   -4.13053432
 H                -13.14488456   -0.26912402   -2.80453432
 H                -12.60988456    1.14887598   -3.73853432
 H                 20.70311544    5.68087598   -3.00353432
 H                 22.58211544    5.17787598   -4.53553432
 H                 22.49311544    3.12187598   -5.96053432
 H                 20.49311544    1.56887598   -5.67853432
 H                 17.81611544    3.37587598   -3.02053432
 H                 16.06211544    4.80187598   -1.69053432
 H                 16.85911544    5.14287598   -0.14853432
 H                 15.57511544    2.87087598   -0.44753432
 H                 17.12311544    2.74887598    0.35246568
 H                 18.62611544    1.56387598   -2.75653432
 H                 18.54111544    1.33787598    0.18346568
 H                 19.92611544    1.76287598   -0.80653432
 H                 20.00611544   -0.53012402    0.18446568
 H                 20.26911544   -0.47312402   -1.54453432
 H                -19.35288456    2.99787598   -2.56253432
 H                -17.59688456    3.03387598   -2.52853432
 H                -19.32688456    1.01387598   -0.95853432
 H                -18.64788456    2.49487598   -0.30553432
 H                 18.87311544   -2.42512402   -0.65853432
 H                 18.32211544   -1.59712402   -2.10753432
 H                -13.65588456    1.51587598    4.11946568
 H                -12.62288456    2.79487598    4.79346568
 H                -12.06288456    1.11687598    4.81346568
 H                -10.28288456    4.16387598    1.92146568
 H                 -9.76588456    3.37887598    3.42146568
 H                -11.19588456    4.44887598    3.41946568
 H                -12.27388456    0.17387598   -0.80553432
 H                -10.98888456    0.43787598   -2.00753432
 H                -11.01088456    1.37887598   -0.50353432
 H                -10.66988456   -1.89712402   -2.45153432
 H                -10.27888456   -3.27612402   -1.42553432
 H                 -8.96988456   -2.24212402   -2.05353432
 H                -14.08288456   -2.12612402    2.16846568
 H                -14.17888456   -0.68512402    1.15246568
 H                -14.28588456   -0.53012402    2.92946568
 H                -11.28088456   -0.86912402    4.64546568
 H                 -9.91188456   -1.35212402    3.62646568
 H                -11.22488456   -2.49112402    3.95746568
 H                 -5.92388456    2.05687598    1.26346568
 H                 -6.66388456    0.99687598    2.48446568
 H                 -7.61388456    2.33187598    1.80146568
 H                 -7.41188456    2.04787598   -1.71553432
 H                 -9.03188456    2.07987598   -0.99353432
 H                 -8.58588456    0.76287598   -2.07853432
 H                 -7.05188456   -1.57712402   -4.34953432
 H                 -5.69788456   -0.45612402   -4.58753432
 H                 -6.86688456   -0.18112402   -3.27753432
 H                 -3.46888456   -2.90112402   -4.08353432
 H                 -4.78288456   -4.10212402   -3.92953432
 H                 -3.62688456   -3.82012402   -2.58853432
 H                 -3.98188456   -2.95912402    0.44946568
 H                 -5.13088456   -4.29812402    0.68946568
 H                 -5.08688456   -2.96612402    1.85746568
 H                 -7.64088456   -4.06712402    1.23746568
 H                 -8.78688456   -3.51112402    0.03246568
 H                 -8.41788456   -2.51612402    1.47046568
 H                 -2.90188456    0.26587598   -4.22453432
 H                 -1.75588456   -0.67812402   -3.24053432
 H                 -1.63688456    1.07987598   -3.27053432
 H                 -5.22488456    1.83087598   -3.04853432
 H                 -3.94688456    2.81487598   -2.31153432
 H                 -5.27488456    2.22687598   -1.30453432
 H                  1.01511544   -1.68812402    2.45646568
 H                 -0.35688456   -2.78712402    2.25446568
 H                  0.41411544   -2.62012402    3.84446568
 H                 -2.24788456   -1.79212402    5.28046568
 H                 -3.22588456   -2.01112402    3.83646568
 H                 -3.23888456   -0.45512402    4.68846568
 H                 -3.90888456   -1.24812402    1.91646568
 H                 -5.06388456   -0.10912402    1.18546568
 H                 -4.52588456    0.16487598    2.81746568
 H                 -3.10688456    2.62987598    2.79146568
 H                 -3.76788456    3.06887598    1.20746568
 H                 -2.01288456    3.16387598    1.49046568
 H                  2.27211544    0.32587598    5.46946568
 H                  3.18511544    1.57387598    4.59246568
 H                  2.58411544    0.12287598    3.72546568
 H                  0.95211544    3.88487598    5.43346568
 H                  0.16311544    2.63187598    6.39146568
 H                 -0.72988456    3.42487598    5.10846568
 H                  1.41411544    1.97087598   -2.24753432
 H                  2.88011544    2.07087598   -3.25653432
 H                  2.31011544    3.48087598   -2.37953432
 H                  5.31811544    3.75187598   -1.33853432
 H                  4.96611544    3.79287598    0.39546568
 H                  3.82911544    4.54487598   -0.75153432
 H                 -0.11588456    4.60887598    0.88046568
 H                 -0.24288456    3.24687598   -0.25253432
 H                  1.05111544    4.44087598   -0.43353432
 H                  3.30111544    4.51787598    1.87346568
 H                  3.59411544    3.05787598    2.83446568
 H                  2.33811544    4.23887598    3.32546568
 H                  1.61911544   -1.85112402   -2.02153432
 H                  1.42511544   -0.14212402   -2.35753432
 H                  1.44911544   -0.70712402   -0.67853432
 H                  5.38311544    0.01587598   -3.48853432
 H                  3.81511544   -0.47012402   -4.21153432
 H                  4.97811544   -1.67012402   -3.59053432
 H                  3.94711544   -4.90012402    4.79546568
 H                  2.95511544   -4.93012402    3.33646568
 H                  3.18111544   -3.41512402    4.18446568
 H                  5.99011544   -6.27612402    2.41546568
 H                  6.81411544   -5.47212402    3.75046568
 H                  7.28611544   -5.10912402    2.08446568
 H                  2.92411544   -1.86712402    2.44946568
 H                  2.71311544   -0.64112402    1.18246568
 H                  4.31911544   -0.97112402    1.84146568
 H                  2.27011544   -4.69612402    0.42346568
 H                  2.54211544   -4.33912402   -1.29053432
 H                  1.44911544   -3.34612402   -0.34053432
 H                  5.97411544   -3.47012402    6.19546568
 H                  5.95211544   -1.88112402    6.98946568
 H                  7.48311544   -2.56812402    6.41246568
 H                  5.29011544    0.42187598    5.40346568
 H                  4.03711544   -0.80412402    5.05746568
 H                  4.72511544    0.19487598    3.73146568
 H                 10.97811544    2.12987598   -0.23653432
 H                 10.92411544    2.50987598    1.47946568
 H                  9.41311544    2.45487598    0.53546568
 H                  8.40411544    0.22587598   -0.76653432
 H                  8.47211544   -1.42512402   -0.14653432
 H                  9.72611544   -0.84712402   -1.27353432
 H                  7.61211544    2.76187598    2.66046568
 H                  6.23111544    1.89787598    3.35346568
 H                  6.86111544    1.42987598    1.76246568
 H                  9.96511544    2.14787598    4.66646568
 H                  9.87211544    0.62387598    5.54346568
 H                  8.56511544    1.80887598    5.70546568
 H                  9.63311544   -2.28112402    3.03446568
 H                 10.69811544   -1.70512402    4.33546568
 H                 10.74911544   -3.40412402    3.83246568
 H                 13.85211544   -0.34112402    2.72046568
 H                 14.42311544   -2.02112402    2.98946568
 H                 13.39811544   -1.21612402    4.19346568
 H                 10.92111544   -2.75412402   -4.50353432
 H                 12.09311544   -1.49212402   -4.94153432
 H                 10.75411544   -1.11212402   -3.82753432
 H                 13.89711544   -3.99512402   -4.24753432
 H                 12.34011544   -4.71212402   -3.73653432
 H                 13.76011544   -4.82012402   -2.67753432
 H                  8.98811544   -3.79112402   -0.50853432
 H                  9.29011544   -3.17412402    1.11546568
 H                  9.45711544   -4.90712402    0.78946568
 H                 13.06911544   -5.65112402   -0.66853432
 H                 11.54611544   -5.83712402   -1.54353432
 H                 11.62811544   -6.23612402    0.18746568
 H                 16.16111544   -3.53312402    0.67246568
 H                 15.46711544   -3.44812402   -0.94453432
 H                 14.67011544   -2.60512402    0.39246568
 H                 17.24511544    0.47487598    1.56546568
 H                 17.08811544   -1.16412402    2.20146568
 H                 15.63611544   -0.22312402    1.75846568
 H                 12.91711544    0.86587598   -2.47253432
 H                 13.22311544    0.46787598   -4.17553432
 H                 14.12611544    1.76687598   -3.41453432
 H                 15.72211544   -1.12912402   -5.03053432
 H                 16.81811544   -1.83212402   -3.83153432
 H                 16.94411544   -0.11112402   -4.24953432

 1 17 1.0 18 1.0 19 2.0 44 1.0
 2 3 1.5 4 1.5 138 1.0
 3 5 1.5 8 1.5
 4 6 1.5 139 1.0
 5 7 1.5
 6 7 1.5 140 1.0
 7 141 1.0
 8 9 1.5 142 1.0
 9 10 1.0 14 2.0
 10 11 1.0 143 1.0 144 1.0
 11 12 1.0 145 1.0 146 1.0
 12 13 1.5 15 2.0
 13 16 1.0 147 1.0
 14
 15
 16 43 1.0 148 1.0 149 1.0
 17 150 1.0 151 1.0 152 1.0
 18 153 1.0 154 1.0 155 1.0
 19 20 2.0
 20 21 2.0 25 1.0 26 1.0
 21 22 2.0
 22 23 1.0 24 1.0 46 2.0
 23 156 1.0 157 1.0 158 1.0
 24 159 1.0 160 1.0 161 1.0
 25 162 1.0 163 1.0 164 1.0
 26 165 1.0 166 1.0 167 1.0
 27 28 1.5 29 1.5 168 1.0
 28 30 1.5 33 1.5
 29 31 1.5 169 1.0
 30 32 1.5
 31 32 1.5 170 1.0
 32 171 1.0
 33 34 1.5 172 1.0
 34 35 1.0 39 2.0
 35 36 1.0 173 1.0 174 1.0
 36 37 1.0 175 1.0 176 1.0
 37 38 1.5 40 2.0
 38 41 1.0 177 1.0
 39
 40
 41 42 1.0 178 1.0 179 1.0
 42 45 1.0 180 1.0 181 1.0
 43 44 1.0 182 1.0 183 1.0
 44 184 1.0 185 1.0
 45 133 1.0 186 1.0 187 1.0
 46 47 2.0
 47 48 1.0 49 1.0 50 2.0
 48 188 1.0 189 1.0 190 1.0
 49 191 1.0 192 1.0 193 1.0
 50 51 1.5
 51 52 2.0 56 1.0 57 1.0
 52 53 2.0
 53 54 1.0 55 1.0 58 2.0
 54 194 1.0 195 1.0 196 1.0
 55 197 1.0 198 1.0 199 1.0
 56 200 1.0 201 1.0 202 1.0
 57 203 1.0 204 1.0 205 1.0
 58 59 2.0
 59 60 1.0 61 1.0 62 2.0
 60 206 1.0 207 1.0 208 1.0
 61 209 1.0 210 1.0 211 1.0
 62 63 1.5
 63 64 1.5 68 1.0 69 1.0
 64 65 1.5
 65 66 1.0 67 1.0 70 1.5
 66 212 1.0 213 1.0 214 1.0
 67 215 1.0 216 1.0 217 1.0
 68 218 1.0 219 1.0 220 1.0
 69 221 1.0 222 1.0 223 1.0
 70 71 1.5
 71 72 1.0 73 1.0 74 2.0
 72 224 1.0 225 1.0 226 1.0
 73 227 1.0 228 1.0 229 1.0
 74 75 1.5
 75 76 2.0 80 1.0 81 1.0
 76 77 2.0
 77 78 1.0 79 1.0 82 1.5
 78 230 1.0 231 1.0 232 1.0
 79 233 1.0 234 1.0 235 1.0
 80 236 1.0 237 1.0 238 1.0
 81 239 1.0 240 1.0 241 1.0
 82 83 2.0
 83 84 1.0 85 1.0 86 1.5
 84 242 1.0 243 1.0 244 1.0
 85 245 1.0 246 1.0 247 1.0
 86 87 2.0
 87 88 1.5 92 1.0 93 1.0
 88 89 1.5
 89 90 1.0 91 1.0 94 1.5
 90 248 1.0 249 1.0 250 1.0
 91 251 1.0 252 1.0 253 1.0
 92 254 1.0 255 1.0 256 1.0
 93 257 1.0 258 1.0 259 1.0
 94 95 1.5
 95 96 1.0 97 1.0 98 1.5
 96 260 1.0 261 1.0 262 1.0
 97 263 1.0 264 1.0 265 1.0
 98 99 1.5
 99 100 1.5 104 1.0 105 1.0
 100 101 1.5
 101 102 1.0 103 1.0 106 2.0
 102 266 1.0 267 1.0 268 1.0
 103 269 1.0 270 1.0 271 1.0
 104 272 1.0 273 1.0 274 1.0
 105 275 1.0 276 1.0 277 1.0
 106 107 2.0
 107 108 1.0 109 1.0 110 2.0
 108 278 1.0 279 1.0 280 1.0
 109 281 1.0 282 1.0 283 1.0
 110 111 2.0
 111 112 2.0 116 1.0 117 1.0
 112 113 2.0
 113 114 1.0 115 1.0 118 2.0
 114 284 1.0 285 1.0 286 1.0
 115 287 1.0 288 1.0 289 1.0
 116 290 1.0 291 1.0 292 1.0
 117 293 1.0 294 1.0 295 1.0
 118 119 1.5
 119 120 1.0 121 1.0 122 1.5
 120 296 1.0 297 1.0 298 1.0
 121 299 1.0 300 1.0 301 1.0
 122 123 1.5
 123 124 2.0 128 1.0 129 1.0
 124 125 2.0
 125 126 1.0 127 1.0 130 2.0
 126 302 1.0 303 1.0 304 1.0
 127 305 1.0 306 1.0 307 1.0
 128 308 1.0 309 1.0 310 1.0
 129 311 1.0 312 1.0 313 1.0
 130 131 2.0
 131 132 1.5 136 1.0 137 1.0
 132 133 1.5
 133 134 1.0 135 1.0
 134 314 1.0 315 1.0 316 1.0
 135 317 1.0 318 1.0 319 1.0
 136 320 1.0 321 1.0 322 1.0
 137 323 1.0 324 1.0 325 1.0
 138
 139
 140
 141
 142
 143
 144
 145
 146
 147
 148
 149
 150
 151
 152
 153
 154
 155
 156
 157
 158
 159
 160
 161
 162
 163
 164
 165
 166
 167
 168
 169
 170
 171
 172
 173
 174
 175
 176
 177
 178
 179
 180
 181
 182
 183
 184
 185
 186
 187
 188
 189
 190
 191
 192
 193
 194
 195
 196
 197
 198
 199
 200
 201
 202
 203
 204
 205
 206
 207
 208
 209
 210
 211
 212
 213
 214
 215
 216
 217
 218
 219
 220
 221
 222
 223
 224
 225
 226
 227
 228
 229
 230
 231
 232
 233
 234
 235
 236
 237
 238
 239
 240
 241
 242
 243
 244
 245
 246
 247
 248
 249
 250
 251
 252
 253
 254
 255
 256
 257
 258
 259
 260
 261
 262
 263
 264
 265
 266
 267
 268
 269
 270
 271
 272
 273
 274
 275
 276
 277
 278
 279
 280
 281
 282
 283
 284
 285
 286
 287
 288
 289
 290
 291
 292
 293
 294
 295
 296
 297
 298
 299
 300
 301
 302
 303
 304
 305
 306
 307
 308
 309
 310
 311
 312
 313
 314
 315
 316
 317
 318
 319
 320
 321
 322
 323
 324
 325

