%chk=bmim2.chk
%mem=6MW
%nproc=1
# hf geom=connectivity

Title Card Required

0 2
 C                  0.56976327    0.04962206   -1.70316793
 C                  1.63915860   -0.73527939   -1.27374842
 C                  1.36681736    0.89957536    0.12907879
 H                 -0.02684247   -0.11363468   -2.57627070
 H                  2.01597479   -1.61298125   -1.75598158
 H                  1.50334740    1.54604575    0.97070572
 N                  0.42872105    1.04320506   -0.82185400
 N                  2.10566259   -0.18762488   -0.14846510
 C                 -0.57996936    2.11083041   -0.88201826
 H                 -1.46133252    1.74205986   -1.36379291
 H                 -0.82249047    2.42871668    0.11046944
 H                 -0.19030194    2.93882970   -1.43652421
 C                  3.23402318   -0.68854099    0.64952327
 H                  3.93315316   -1.18275111    0.00774936
 H                  2.87338993   -1.37903994    1.38304532
 C                  3.92893306    0.49178507    1.35346270
 H                  3.22980333    0.98599459    1.99523732
 H                  4.28956577    1.18228463    0.61994087
 C                  5.11102569   -0.03298437    2.18944960
 H                  5.81015543   -0.52719346    1.54767467
 H                  4.75039323   -0.72348442    2.92297122
 C                  5.80593554    1.14734129    2.89338965
 H                  6.62725986    0.78272849    3.47423713
 H                  6.16656784    1.83784173    2.15986820
 H                  5.10680597    1.64155004    3.53516484

 1 2 1.5 4 1.0 7 1.5
 2 5 1.0 8 1.5
 3 6 1.0 7 1.5 8 1.5
 4
 5
 6
 7 9 1.0
 8 13 1.0
 9 10 1.0 11 1.0 12 1.0
 10
 11
 12
 13 14 1.0 15 1.0 16 1.0
 14
 15
 16 17 1.0 18 1.0 19 1.0
 17
 18
 19 20 1.0 21 1.0 22 1.0
 20
 21
 22 23 1.0 24 1.0 25 1.0
 23
 24
 25

