%chk=B3LYP_6-31G*_thf_ne_LAC-1.chk
%nprocshared=10
%mem=2000MB
#  B3LYP/genecp scf=tight gfprint SCRF=(PCM, Solvent=THF) 

cam-b3lyp

0 1
  Zn      0.568243     -0.139138     -0.835331
  N       2.597207     -0.081424     -1.211173
  N       0.586048      1.885758     -0.451315
  N      -1.466078     -0.190687     -0.505701
  N       0.559466     -2.174211     -1.178853
  C      -0.095890      4.050993     -0.053053
  C       1.248483      4.086598     -0.290699
  C       1.669993      2.723542     -0.537244
  C      -0.505655      2.665709     -0.152281
  C       2.997777      2.342695     -0.845487
  C       3.409716      1.030503     -1.148712
  C       4.777175      0.641121     -1.430552
  C       3.397719     -1.142709     -1.527039
  C       1.630900     -2.946252     -1.529235
  C       1.209603     -4.315512     -1.726704
  C      -0.134496     -4.352162     -1.491437
  C      -0.539972     -3.005149     -1.142139
  C      -1.859500     -2.622429     -0.834003
  C      -2.269013     -1.303600     -0.525649
  C      -3.618802     -0.933512     -0.154601
  C      -3.612185      0.411701      0.080853
  C      -2.258151      0.873022     -0.144377
  H       5.634148      1.310294     -1.439043
  H       1.895343      4.960347     -0.310307
  H      -0.753622      4.890082      0.160038
  H      -4.446960      1.034829      0.391634
  H      -4.460543     -1.617158     -0.072250
  H      -0.795654     -5.213193     -1.555647
  H       1.860381     -5.136702     -2.017453
  C       4.767777     -0.702941     -1.669099
  H       5.610631     -1.345003     -1.914045
  C       4.041425      3.422266     -0.855376
  C      -2.912504     -3.693747     -0.831799
  H       6.756126      6.214292     -0.876760
  C       5.989179      5.431877     -0.871306
  C      -4.842234     -4.763619     -1.887665
  C      -3.948198     -5.643320      0.221396
  C      -4.872813     -5.690635     -0.833243
  H      -5.639527     -6.472898     -0.834486
  C       5.571000      4.878290     -2.090099
  C       5.454016      5.009425      0.356842
  C      -1.834039      2.211934      0.009465
  C      -2.875096      3.232749      0.367388
  C      -2.906733      3.800543      1.651245
  C      -3.828696      3.637925     -0.579669
  C      -3.874669      4.754472      2.000398
  H      -2.167698      3.486717      2.393993
  C      -4.800605      4.600560     -0.266292
  H      -3.804611      3.201406     -1.581979
  C      -4.809305      5.143414      1.027933
  H      -5.566497      5.891693      1.285465
  C       4.478247      4.002030      0.347857
  H       4.056609      3.652550      1.294179
  C       4.596076      3.867238     -2.064944
  H       4.259827      3.419714     -3.004432
  C      -2.970751     -4.635335      0.207506
  H      -2.243157     -4.578030      1.022658
  C      -3.853215     -3.768322     -1.872103
  H      -3.808309     -3.039509     -2.686894
  C       6.132265      5.375408     -3.401838
  H       5.519916      6.201570     -3.804615
  H       7.156854      5.759017     -3.281188
  H       6.146789      4.579451     -4.162724
  C       5.910966      5.640942      1.650849
  H       7.006140      5.759333      1.676187
  H       5.476610      6.648286      1.773303
  H       5.607518      5.042779      2.522745
  C      -3.981939     -6.665377      1.333569
  H      -4.968415     -7.147433      1.410032
  H      -3.237174     -7.462546      1.161433
  H      -3.744422     -6.209679      2.307860
  C      -5.864843     -4.817594     -2.998626
  H      -6.258790     -5.836052     -3.136392
  H      -6.724528     -4.160778     -2.776384
  H      -5.439917     -4.479073     -3.956283
  C      -5.791199      5.066433     -1.306890
  H      -5.425614      5.974093     -1.818983
  H      -5.957173      4.299736     -2.078894
  H      -6.762486      5.321975     -0.855588
  C      -3.929287      5.326439      3.397483
  H      -4.645449      4.767130      4.024962
  H      -2.948742      5.274634      3.895314
  H      -4.257547      6.377461      3.388825
  C       2.968062     -2.488767     -1.688922
  C       3.952983     -3.455665     -2.042858
  C       4.793122     -4.290267     -2.348942
  C       5.763536     -5.268319     -2.709011
  C       5.443484     -6.647241     -2.680927
  C       7.067813     -4.887804     -3.106800
  C       6.385690     -7.603271     -3.038529
  H       4.443891     -6.960021     -2.372211
  C       8.009757     -5.844136     -3.465661
  H       7.332761     -3.828687     -3.135142
  H       6.121838     -8.662709     -3.011516
  H       9.009782     -5.532743     -3.774458
  C       7.687767     -7.221415     -3.439786
  C       8.649977     -8.204955     -3.813468
  C       9.468260     -9.052584     -4.136131
  C      10.416635    -10.048710     -4.515237
  C      10.074471    -11.420048     -4.464597
  C      11.712570     -9.684594     -4.951195
  C      10.996387    -12.392624     -4.840309
  H       9.077946    -11.712574     -4.128008
  C      12.629352    -10.661602     -5.323705
  H      11.988106     -8.628869     -4.994810
  C      12.281998    -12.022637     -5.273439
  H      10.720632    -13.447400     -4.797982
  H      13.629242    -10.382699     -5.661548
  C      13.299500    -13.030813     -5.685186
  O      14.426814    -12.757282     -6.044962
  O      12.849619    -14.293842     -5.623085
  H      13.571977    -14.882726     -5.907418

@6-31gsm.gbs




