%chk=ala.chk
%mem=6MW
%nproc=1
# hf geom=connectivity

Sketch 5

0 2
 C                 -3.57610000    1.42600000    0.38500000
 C                 -2.09370000    1.46240000    0.03170000
 O                 -1.38480000    0.49210000    0.45400000
 O                 -1.66700000    2.45340000   -0.60700000
 N                 -4.34700000    2.45970000   -0.27540000
 H                 -3.65410000    3.19110000   -0.51950000
 H                 -4.64830000    2.08510000   -1.18870000
 H                 -3.60130000    1.61500000    1.48000000
 C                 -4.16910000    0.06300000    0.14840000
 H                 -3.58650000   -0.70490000    0.68030000
 H                 -5.21880000    0.03550000    0.48540000
 H                 -4.14670000   -0.17960000   -0.93140000

 1 2 1.0 8 1.0 5 1.0 9 1.0
 2 3 1.5 4 1.5
 3
 4
 5 6 1.0 7 1.0
 6
 7
 8
 9 10 1.0 11 1.0 12 1.0
 10
 11
 12

