# hf/3-21g geom=connectivity

Title Card Required

1 1
 C                 -1.69372825    1.61438110   -0.23396541
 H                 -1.80141903    2.60910826    0.14527141
 H                 -1.97866244    1.59299694   -1.26510809
 H                 -2.32102686    0.95037472    0.32325266
 N                 -0.29252424    1.18940440   -0.10388025
 C                  0.14209258   -0.11648485    0.10315283
 H                 -0.56154390   -0.94385768    0.18593488
 C                  0.81748104    2.02660457   -0.16793126
 H                  0.71245609    3.09922816   -0.32564672
 C                  1.54215236   -0.11164965    0.17179895
 H                  2.18272062   -0.97347137    0.32596757
 N                  1.97039302    1.24700929    0.00000900
 C                  3.35845853    1.73092473    0.00010087
 H                  3.34549537    2.83945962   -0.13594012
 H                  3.88975021    1.27815682   -0.87184873
 C                  4.04260347    1.36107431    1.29058741
 H                  3.48115112    1.80370378    2.15549102
 H                  4.04260169    0.24497061    1.40690718
 C                  5.47656018    1.84668826    1.32057818
 H                  6.03800401    1.40406347    0.45570260
 H                  5.49535315    2.96097142    1.18951767
 C                  6.16066936    1.47687761    2.61111375
 H                  5.62922088    1.92960253    3.48298939
 H                  6.17331217    0.36832384    2.74717672
 C                  7.61493426    1.98354665    2.61139456
 H                  7.60171035    3.09350982    2.48757334
 H                  8.14290076    1.54027918    1.73257088
 C                  8.30376341    1.59943692    3.89520656
 H                  7.74560819    2.03264923    4.76698502
 H                  8.30394794    0.48212408    3.99927277
 C                  9.73792713    2.08443773    3.92522042
 H                 10.29607393    1.65122978    3.05347008
 H                  9.75647878    3.20008853    3.80632499
 C                 10.42672071    1.70036723    5.20908202
 H                  9.89859713    2.14359256    6.08783184
 H                 10.43962436    0.59038499    5.33292619
 C                 11.88108727    2.20674425    5.20954382
 H                 12.35602875    1.92652560    6.12649971
 H                 12.41005482    1.77294378    4.38679812
 H                 11.88767924    3.27259665    5.11565449

 1 2 1.0 3 1.0 4 1.0 5 1.0
 2
 3
 4
 5 6 1.0 8 1.0
 6 10 2.0 7 1.0
 7
 8 9 1.0 12 2.0
 9
 10 11 1.0 12 1.0
 11
 12 13 1.0
 13 16 1.0 14 1.0 15 1.0
 14
 15
 16 19 1.0 17 1.0 18 1.0
 17
 18
 19 22 1.0 20 1.0 21 1.0
 20
 21
 22 23 1.0 24 1.0 25 1.0
 23
 24
 25 28 1.0 26 1.0 27 1.0
 26
 27
 28 31 1.0 29 1.0 30 1.0
 29
 30
 31 34 1.0 32 1.0 33 1.0
 32
 33
 34 35 1.0 36 1.0 37 1.0
 35
 36
 37 38 1.0 39 1.0 40 1.0
 38
 39
 40

