%chk=emim.chk
%mem=6MW
%nproc=1
# hf/3-21g geom=connectivity

Title Card Required

0 2
 C                 -0.44864277   -0.24963683   -0.59859775
 C                  0.65943748   -0.55588006    0.19035773
 C                  0.63494288    1.58411087   -0.17663291
 H                 -1.17478681   -0.94264492   -0.96921078
 H                  0.94189770   -1.52763956    0.53791997
 H                  0.91048106    2.61792643   -0.16233447
 N                  1.30265835    0.58951064    0.43152309
 N                 -0.43494906    1.06973814   -0.80566318
 C                 -1.42135819    1.82887808   -1.58771409
 H                 -2.37266929    1.34243771   -1.53042077
 H                 -1.50319675    2.81997772   -1.19284216
 H                 -1.10620650    1.87678970   -2.60912718
 C                  2.53061377    0.73666058    1.22611255
 H                  3.11409931   -0.15698926    1.14972838
 H                  2.27406749    0.90864112    2.25056730
 C                  3.34649521    1.92948166    0.69402692
 H                  4.24031329    2.03659064    1.27240154
 H                  3.60304171    1.75750103   -0.33042734
 H                  2.76300982    2.82313159    0.77041073

 1 2 1.5 4 1.0 8 1.5
 2 5 1.0 7 1.5
 3 6 1.0 7 1.5 8 1.5
 4
 5
 6
 7 13 1.0
 8 9 1.0
 9 10 1.0 11 1.0 12 1.0
 10
 11
 12
 13 14 1.0 15 1.0 16 1.0
 14
 15
 16 17 1.0 18 1.0 19 1.0
 17
 18
 19

