%chk=ho.chk
%rwf=ho.rwf
%mem=1GB
%nprocs=1
#p cam-b3lyp/sto-3g scf(maxcycle=-1) 

Title

0 1
 O                 -3.59640000    0.80930000   -0.58130000
 H                 -3.96640000    1.54930000    0.15870000
 H                 -2.48640000    0.80930000   -0.58130000
 O                 -6.18130000   -0.79380000    0.55510000
 H                 -6.28240000    0.28540000    0.31610000
 H                 -5.39640000   -0.92970000    1.32810000



