%chk=E:\Gitlib\ffdev\dyn\tmp\ch3br2.chk
# hf/3-21g geom=connectivity

Title Card Required

0 1
 C                 -0.12610570   -2.17183532   -0.50155042
 H                 -0.54534946   -3.00735623   -1.02216493
 H                  0.83418663   -2.43924121   -0.11266389
 H                 -0.02097065   -1.34769219   -1.17581648
 Br                -1.27957364   -1.67419345    0.93718663
 C                 -5.67936798   -1.97240691    0.43501286
 H                 -5.68535670   -1.87189384    1.50026460
 H                 -6.63966031   -1.70500102    0.04612634
 H                 -5.45841686   -2.98619841    0.17365603
 Br                -4.34891922   -0.81949425   -0.30579648

 1 2 1.0 3 1.0 4 1.0 5 1.0
 2
 3
 4
 5 10 0.5
 6 7 1.0 8 1.0 9 1.0 10 1.0
 7
 8
 9
 10

