%chk=E:\Gitlib\ch3br.chk
# hf/3-21g geom=connectivity

Title Card Required

0 1
 Br                -1.33204628   -1.06177605    0.00000000
 C                 -3.24204628   -1.06177605    0.00000000
 H                 -3.59871263   -0.58817053    0.89072270
 H                 -3.59871263   -0.52719054   -0.85551590
 H                 -3.59871314   -2.06996712   -0.03520681

 1 2 1.0
 2 3 1.0 4 1.0 5 1.0
 3
 4
 5

