%chk=E:\Gitlib\phbr.chk
# hf/3-21g geom=connectivity

Title Card Required

0 1
 C                 -0.24293339   -0.90318649   -0.17137159
 C                  1.15222661   -0.90318649   -0.17137159
 C                  1.84976461    0.30456451   -0.17137159
 C                  1.15211061    1.51307351   -0.17257059
 C                 -0.24271439    1.51299551   -0.17304959
 C                 -0.94031539    0.30478951   -0.17205359
 H                 -0.79269239   -1.85550349   -0.17092159
 H                  1.70173461   -1.85569949   -0.17005659
 H                  2.94944461    0.30464451   -0.17073759
 H                  1.70231061    2.46521651   -0.17262959
 H                 -0.79283639    2.46527651   -0.17400259
 Br                -2.85031534    0.30510738   -0.17236624

 1 2 1.5 6 1.5 7 1.0
 2 3 1.5 8 1.0
 3 4 1.5 9 1.0
 4 5 1.5 10 1.0
 5 6 1.5 11 1.0
 6 12 1.0
 7
 8
 9
 10
 11
 12

